ieee33-dg-voltage-regulation/results/S4_SOP_Powers.csv
Element, Terminal, P(kW), Q(kvar),  P_Normal, Q_Normal, P_Emergency, Q_Emergency
"Transformer.SUBTRANS"  ,   1,      1529.1,      1826.2,         0.0,         0.0,         0.0,         0.0
"Transformer.SUBTRANS"  ,   2,     -1511.5,     -1743.7
"Line.L1"               ,   1,      1511.5,      1743.7,         0.0,         0.0,         0.0,         0.0
"Line.L1"               ,   2,     -1508.6,     -1742.3
"Line.L2"               ,   1,      1328.3,      1572.8,         0.0,         0.0,         0.0,         0.0
"Line.L2"               ,   2,     -1315.7,     -1566.5
"Line.L3"               ,   1,       530.9,      1113.4,         0.0,         0.0,         0.0,         0.0
"Line.L3"               ,   2,      -527.5,     -1111.9
"Line.L4"               ,   1,       407.5,      1031.9,         0.0,         0.0,         0.0,         0.0
"Line.L4"               ,   2,      -404.6,     -1030.6
"Line.L5"               ,   1,       344.6,      1000.6,         0.0,         0.0,         0.0,         0.0
"Line.L5"               ,   2,      -339.0,      -995.9
"Line.L6"               ,   1,      -163.0,       167.8,         0.0,         0.0,         0.0,         0.0
"Line.L6"               ,   2,       163.1,      -167.8
"Line.L7"               ,   1,      -363.1,        67.8,         0.0,         0.0,         0.0,         0.0
"Line.L7"               ,   2,       363.7,       -67.8
"Line.L8"               ,   1,      -563.7,       -32.2,         0.0,         0.0,         0.0,         0.0
"Line.L8"               ,   2,       565.7,        33.5
"Line.L9"               ,   1,      -625.7,       -53.5,         0.0,         0.0,         0.0,         0.0
"Line.L9"               ,   2,       628.3,        55.2
"Line.L10"              ,   1,      -378.3,       -15.2,         0.0,         0.0,         0.0,         0.0
"Line.L10"              ,   2,       378.4,        15.1
"Line.L11"              ,   1,      -423.4,       -45.0,         0.0,         0.0,         0.0,         0.0
"Line.L11"              ,   2,       423.9,        45.0
"Line.L12"              ,   1,      -483.9,       -80.0,         0.0,         0.0,         0.0,         0.0
"Line.L12"              ,   2,       486.0,        81.5
"Line.L13"              ,   1,      -546.0,      -116.5,         0.0,         0.0,         0.0,         0.0
"Line.L13"              ,   2,       547.0,       117.7
"Line.L14"              ,   1,      -667.0,      -197.7,         0.0,         0.0,         0.0,         0.0
"Line.L14"              ,   2,       668.7,       199.0
"Line.L15"              ,   1,      -728.7,      -209.0,         0.0,         0.0,         0.0,         0.0
"Line.L15"              ,   2,       731.3,       210.7
"Line.L16"              ,   1,      -791.3,      -230.7,         0.0,         0.0,         0.0,         0.0
"Line.L16"              ,   2,       796.5,       237.5
"Line.L17"              ,   1,      -856.5,      -257.5,         0.0,         0.0,         0.0,         0.0
"Line.L17"              ,   2,       859.9,       260.0
"Line.L18"              ,   1,        80.2,       109.6,         0.0,         0.0,         0.0,         0.0
"Line.L18"              ,   2,       -80.2,      -109.7
"Line.L19"              ,   1,        -9.8,        69.7,         0.0,         0.0,         0.0,         0.0
"Line.L19"              ,   2,         9.8,       -69.9
"Line.L20"              ,   1,       -99.8,        29.9,         0.0,         0.0,         0.0,         0.0
"Line.L20"              ,   2,        99.8,       -30.0
"Line.L21"              ,   1,      -189.8,       -10.0,         0.0,         0.0,         0.0,         0.0
"Line.L21"              ,   2,       190.0,        10.0
"Line.L22"              ,   1,       694.8,       413.1,         0.0,         0.0,         0.0,         0.0
"Line.L22"              ,   2,      -693.0,      -412.1
"Line.L23"              ,   1,       603.0,       362.1,         0.0,         0.0,         0.0,         0.0
"Line.L23"              ,   2,      -600.3,      -360.1
"Line.L24"              ,   1,       180.3,       160.1,         0.0,         0.0,         0.0,         0.0
"Line.L24"              ,   2,      -180.0,      -160.0
"Line.L25"              ,   1,       442.0,       808.1,         0.0,         0.0,         0.0,         0.0
"Line.L25"              ,   2,      -440.9,      -807.7
"Line.L26"              ,   1,       380.9,       782.7,         0.0,         0.0,         0.0,         0.0
"Line.L26"              ,   2,      -379.6,      -782.2
"Line.L27"              ,   1,       319.6,       757.2,         0.0,         0.0,         0.0,         0.0
"Line.L27"              ,   2,      -315.1,      -753.4
"Line.L28"              ,   1,       255.1,       733.4,         0.0,         0.0,         0.0,         0.0
"Line.L28"              ,   2,      -252.0,      -730.9
"Line.L29"              ,   1,       132.1,       660.9,         0.0,         0.0,         0.0,         0.0
"Line.L29"              ,   2,      -130.6,      -660.3
"Line.L30"              ,   1,       -69.4,        60.3,         0.0,         0.0,         0.0,         0.0
"Line.L30"              ,   2,        69.5,       -60.4
"Line.L31"              ,   1,      -219.5,        -9.6,         0.0,         0.0,         0.0,         0.0
"Line.L31"              ,   2,       219.6,         9.5
"Line.L32"              ,   1,      -429.6,      -109.5,         0.0,         0.0,         0.0,         0.0
"Line.L32"              ,   2,       430.0,       110.0
"Load.L2"               ,   1,       100.0,        60.0
"Load.L3"               ,   1,        90.0,        40.0
"Load.L4"               ,   1,       120.0,        80.0
"Load.L5"               ,   1,        60.0,        30.0
"Load.L6"               ,   1,        60.0,        20.0
"Load.L7"               ,   1,       200.0,       100.0
"Load.L8"               ,   1,       200.0,       100.0
"Load.L9"               ,   1,        60.0,        20.0
"Load.L10"              ,   1,        60.0,        20.0
"Load.L11"              ,   1,        45.0,        30.0
"Load.L12"              ,   1,        60.0,        35.0
"Load.L13"              ,   1,        60.0,        35.0
"Load.L14"              ,   1,       120.0,        80.0
"Load.L15"              ,   1,        60.0,        10.0
"Load.L16"              ,   1,        60.0,        20.0
"Load.L17"              ,   1,        60.0,        20.0
"Load.L18"              ,   1,        90.0,        40.0
"Load.L19"              ,   1,        90.0,        40.0
"Load.L20"              ,   1,        90.0,        40.0
"Load.L21"              ,   1,        90.0,        40.0
"Load.L22"              ,   1,        90.0,        40.0
"Load.L23"              ,   1,        90.0,        50.0
"Load.L24"              ,   1,       420.0,       200.0
"Load.L25"              ,   1,       420.0,       200.0
"Load.L26"              ,   1,        60.0,        25.0
"Load.L27"              ,   1,        60.0,        25.0
"Load.L28"              ,   1,        60.0,        20.0
"Load.L29"              ,   1,       120.0,        70.0
"Load.L30"              ,   1,       200.0,       600.0
"Load.L31"              ,   1,       150.0,        70.0
"Load.L32"              ,   1,       210.0,       100.0
"Load.L33"              ,   1,        60.0,        40.0
"Generator.PV_INDUSTRIAL_PARK",   1,     -1449.9,      -499.9
"Generator.BIOMASS_PLANT",   1,      -310.0,       -60.0
"Generator.MINI_HYDRO"  ,   1,      -280.0,       -50.0
"Generator.PV_ROOF_TOP" ,   1,      -240.0,       -40.0
"Generator.SOP_18"      ,   1,       500.0,       200.0
"Generator.SOP_33"      ,   1,      -490.0,      -150.0
